OPT_V8/My_Campus_24/powerflow_results_t9.txt
Pandapower Network Debug Info
==================================================

BUS:
       vm_pu  va_degree      p_mw    q_mvar
0   0.995078   0.227966 -0.000004  0.001012
1   0.992419   0.361117  0.000209  0.002088
2   0.990032   0.464207  0.000676  0.002481
3   0.991684   0.365159  0.001417  0.004643
4   0.991410   0.255293  0.002174  0.004421
5   0.993911   0.278572  0.001694  0.006588
6   0.993302   0.324412 -0.000008  0.000901
7   0.998380   0.051657  0.000687  0.001806
8   0.998314   0.063337  0.000157  0.003573
9   0.999901   0.001089  0.007312  0.010138
10  0.999889   0.001110  0.011512  0.008548
11  0.999881   0.001153  0.009570  0.008978
12  0.999794   0.002367  0.008401  0.005969
13  0.999765   0.002376  0.012469  0.008131
14  0.999775   0.002421  0.013527  0.013491
15  0.999940   0.000844  0.000000  0.000000
16  0.999940   0.000850  0.000000  0.000000
17  0.999798   0.002378  0.000000  0.000000
18  0.999798   0.002388  0.000000  0.000000
19  1.000000   0.000000 -0.030804 -0.042959
20  1.000000   0.000006  0.000000  0.000000
21  1.000000   0.000000 -0.039224 -0.049958
22  1.000000   0.000007  0.000000  0.000000
--------------------------------------------------

LINE:
    p_from_mw  q_from_mvar   p_to_mw  q_to_mvar         pl_mw       ql_mvar  i_from_ka   i_to_ka      i_ka  vm_from_pu  va_from_degree  vm_to_pu  va_to_degree  loading_percent
0    0.030794     0.038959 -0.030791  -0.038958  2.412153e-06  1.880795e-06   0.001911  0.001911  0.001911    1.000000        0.000006  0.999940      0.000844         0.831043
1    0.039214     0.045958 -0.039204  -0.045951  9.817687e-06  7.655012e-06   0.002325  0.002325  0.002325    1.000000        0.000007  0.999798      0.002378         1.011019
2    0.028396     0.027665 -0.028395  -0.027664  1.215507e-06  9.477506e-07   0.001526  0.001526  0.001526    0.999940        0.000844  0.999901      0.001089         0.663483
3    0.008401     0.005969 -0.008401  -0.005969  3.674013e-08  2.864688e-08   0.000397  0.000397  0.000397    0.999798        0.002378  0.999794      0.002367         0.172490
4    0.025996     0.021623 -0.025996  -0.021622  6.254316e-07  4.876593e-07   0.001302  0.001302  0.001302    0.999798        0.002378  0.999775      0.002421         0.565977
5    0.002385     0.010293 -0.002333  -0.010252  5.221556e-05  4.071333e-05   0.015251  0.015251  0.015251    0.999940        0.000850  0.995078      0.227966         6.630683
6    0.001733     0.007526 -0.001687  -0.007490  4.628828e-05  3.609173e-05   0.011149  0.011149  0.011149    0.999798        0.002388  0.993911      0.278572         4.847383
7    0.000689     0.001808 -0.000687  -0.001806  2.530821e-06  1.973323e-06   0.002794  0.002794  0.002794    0.999798        0.002388  0.998380      0.051657         1.214605
8    0.002374     0.008026 -0.002362  -0.008017  1.204951e-05  9.395202e-06   0.012083  0.012083  0.012083    0.999798        0.002388  0.998314      0.063337         5.253527
9   -0.021082    -0.017526  0.021083   0.017526  2.599826e-07  2.027127e-07   0.001055  0.001055  0.001055    0.999889        0.001110  0.999901      0.001089         0.458845
10  -0.009570    -0.008978  0.009571   0.008978  8.423740e-08  6.568129e-08   0.000505  0.000505  0.000505    0.999881        0.001153  0.999889      0.001110         0.219629
11   0.012469     0.008131 -0.012469  -0.008131  1.084185e-07  8.453570e-08   0.000573  0.000573  0.000573    0.999775        0.002421  0.999765      0.002376         0.249166
12  -0.000891    -0.004574  0.000904   0.004584  1.304222e-05  1.016923e-05   0.006777  0.006777  0.006777    0.992419        0.361117  0.995078      0.227966         2.946484
13  -0.001417    -0.004643  0.001433   0.004656  1.600148e-05  1.247662e-05   0.007066  0.007066  0.007066    0.991684        0.365159  0.995078      0.227966         3.072175
14  -0.000676    -0.002481  0.000682   0.002486  6.102807e-06  4.758459e-06   0.003749  0.003749  0.003749    0.990032        0.464207  0.992419      0.361117         1.630007
15   0.002204     0.004444 -0.002174  -0.004421  3.004252e-05  2.342464e-05   0.007172  0.007172  0.007172    0.998314        0.063337  0.991410      0.255293         3.118303
16   0.000008    -0.000901 -0.000007   0.000902  7.168511e-07  5.589406e-07   0.001310  0.001310  0.001310    0.993302        0.324412  0.993911      0.278572         0.569444
--------------------------------------------------

TRAFO:
    p_hv_mw  q_hv_mvar   p_lv_mw  q_lv_mvar    pl_mw  ql_mvar   i_hv_ka   i_lv_ka  vm_hv_pu  va_hv_degree  vm_lv_pu  va_lv_degree  loading_percent
0  0.002395   0.011292 -0.002385  -0.010293  0.00001    0.001  0.000444  0.015251  0.999940      0.000844  0.999940      0.000850         0.115443
1  0.004807   0.018359 -0.004797  -0.017360  0.00001    0.001  0.000731  0.026001  0.999798      0.002378  0.999798      0.002388         0.189819
2  0.030804   0.042959 -0.030794  -0.038959  0.00001    0.004  0.000436  0.001911  1.000000      0.000000  1.000000      0.000006         0.132154
3  0.039224   0.049958 -0.039214  -0.045958  0.00001    0.004  0.000524  0.002325  1.000000      0.000000  1.000000      0.000007         0.158791
--------------------------------------------------
